           7
Energy =   0.0000000E+00
O        0.0000     0.0000     0.0000
H       -0.0000    -0.7668    -0.5971
H       -0.0000     0.7668    -0.5971
X       -0.0000    -0.0000    -0.0668
O        0.7416     1.2000    -1.9416
H       -0.0446     1.5003    -2.4276
H        1.3418     1.9641    -1.9643
