           7
Energy =   0.0000000E+00
O        0.0000     0.0000     0.0000
H       -0.0000    -0.7668    -0.5971
H       -0.0000     0.7668    -0.5971
X       -0.0000    -0.0000    -0.0668
O        0.7416    -1.2000     1.9416
H        1.5684    -1.7109     1.9416
H        1.0046    -0.3217     1.6194
