           7
Energy =   0.0000000E+00
O        0.0000     0.0000     0.0000
H       -0.0000    -0.7668    -0.5971
H       -0.0000     0.7668    -0.5971
X       -0.0000    -0.0000    -0.0668
O        2.0416    -1.2618     0.0000
H        2.3419    -0.7758     0.7863
H        2.6878    -1.9812    -0.0964
