           7
Energy =   0.0000000E+00
O        0.0000     0.0000     0.0000
H       -0.0000    -0.7668    -0.5971
H       -0.0000     0.7668    -0.5971
X       -0.0000    -0.0000    -0.0668
O       -0.7416     1.2000     1.9416
H        0.0446     0.8997     1.4557
H       -0.4057     1.4166     2.8275
