           7
Energy =   0.0000000E+00
O        0.0000     0.0000     0.0000
H       -0.0000    -0.7668    -0.5971
H       -0.0000     0.7668    -0.5971
X       -0.0000    -0.0000    -0.0668
O       -1.2618     0.0000    -2.0416
H       -1.2618     0.8267    -2.5525
H       -1.2618    -0.6979    -2.7179
