           7
Energy =   0.0000000E+00
O        0.0000     0.0000     0.0000
H       -0.0000    -0.7668    -0.5971
H       -0.0000     0.7668    -0.5971
X       -0.0000    -0.0000    -0.0668
O       -0.7416     1.2000     1.9416
H       -0.4413     1.6859     1.1554
H       -0.8689     1.8902     2.6139
