           7
Energy =   0.0000000E+00
O        0.0000     0.0000     0.0000
H       -0.0000    -0.7668    -0.5971
H       -0.0000     0.7668    -0.5971
X       -0.0000    -0.0000    -0.0668
O       -0.7416    -1.2000     1.9416
H       -1.2276    -0.4137     2.2420
H       -0.6342    -1.0627     0.9856
