           7
Energy =   0.0000000E+00
O        0.0000     0.0000     0.0000
H       -0.0000    -0.7668    -0.5971
H       -0.0000     0.7668    -0.5971
X       -0.0000    -0.0000    -0.0668
O        1.2000     1.9416    -0.7416
H        1.5003     2.4276    -1.5279
H        0.3249     2.3180    -0.5490
