           7
Energy =   0.0000000E+00
O        0.0000     0.0000     0.0000
H       -0.0000    -0.7668    -0.5971
H       -0.0000     0.7668    -0.5971
X       -0.0000    -0.0000    -0.0668
O        1.9416    -0.7416    -1.2000
H        1.9416    -1.5684    -0.6891
H        2.8271    -0.3697    -1.0510
