           7
Energy =   0.0000000E+00
O        0.0000     0.0000     0.0000
H       -0.0000    -0.7668    -0.5971
H       -0.0000     0.7668    -0.5971
X       -0.0000    -0.0000    -0.0668
O       -0.7416     1.2000     1.9416
H       -0.7416     2.1719     1.9416
H       -0.1360     0.9619     2.6634
