           7
Energy =   0.0000000E+00
O        0.0000     0.0000     0.0000
H       -0.0000    -0.7668    -0.5971
H       -0.0000     0.7668    -0.5971
X       -0.0000    -0.0000    -0.0668
O        1.9416    -0.7416     1.2000
H        0.9698    -0.7416     1.2000
H        2.1797    -1.2128     2.0160
