           7
Energy =   0.0000000E+00
O        0.0000     0.0000     0.0000
H       -0.0000    -0.7668    -0.5971
H       -0.0000     0.7668    -0.5971
X       -0.0000    -0.0000    -0.0668
O        0.0000     0.0000     2.4000
H        0.7863    -0.3003     1.9141
H       -0.2637    -0.7728     2.9270
