           7
Energy =   0.0000000E+00
O        0.0000     0.0000     0.0000
H       -0.0000    -0.7668    -0.5971
H       -0.0000     0.7668    -0.5971
X       -0.0000    -0.0000    -0.0668
O        1.2000     1.9416     0.7416
H        2.0267     1.4307     0.7416
H        1.4630     2.8200     0.4194
