           7
Energy =   0.0000000E+00
O        0.0000     0.0000     0.0000
H       -0.0000    -0.7668    -0.5971
H       -0.0000     0.7668    -0.5971
X       -0.0000    -0.0000    -0.0668
O        0.0000    -2.0416     1.2618
H        0.0000    -2.8683     1.7727
H       -0.7218    -2.1575     0.6214
