           7
Energy =   0.0000000E+00
O        0.0000     0.0000     0.0000
H       -0.0000    -0.7668    -0.5971
H       -0.0000     0.7668    -0.5971
X       -0.0000    -0.0000    -0.0668
O        0.0000     0.0000    -2.4000
H       -0.5109    -0.0000    -3.2267
H        0.9145     0.1636    -2.6853
