           7
Energy =   0.0000000E+00
O        0.0000     0.0000     0.0000
H       -0.0000    -0.7668    -0.5971
H       -0.0000     0.7668    -0.5971
X       -0.0000    -0.0000    -0.0668
O        2.4000     0.0000     0.0000
H        2.9109     0.0000    -0.8267
H        1.5217    -0.3223    -0.2630
