           7
Energy =   0.0000000E+00
O        0.0000     0.0000     0.0000
H       -0.0000    -0.7668    -0.5971
H       -0.0000     0.7668    -0.5971
X       -0.0000    -0.0000    -0.0668
O       -1.9416    -0.7416    -1.2000
H       -1.6413    -0.2557    -0.4137
H       -1.2674    -0.5468    -1.8722
