           7
Energy =   0.0000000E+00
O        0.0000     0.0000     0.0000
H       -0.0000    -0.7668    -0.5971
H       -0.0000     0.7668    -0.5971
X       -0.0000    -0.0000    -0.0668
O       -1.9416    -0.7416     1.2000
H       -1.4307    -0.7416     0.3733
H       -1.9276     0.1863     1.4885
