           7
Energy =   0.0000000E+00
O        0.0000     0.0000     0.0000
H       -0.0000    -0.7668    -0.5971
H       -0.0000     0.7668    -0.5971
X       -0.0000    -0.0000    -0.0668
O       -2.0416    -1.2618     0.0000
H       -2.0416    -0.2899    -0.0000
H       -1.5704    -1.4998     0.8160
