           7
Energy =   0.0000000E+00
O        0.0000     0.0000     0.0000
H       -0.0000    -0.7668    -0.5971
H       -0.0000     0.7668    -0.5971
X       -0.0000    -0.0000    -0.0668
O       -0.7416    -1.2000     1.9416
H       -1.2276    -1.9863     1.6413
H       -1.1559    -0.9742     2.7913
