           7
Energy =   0.0000000E+00
O        0.0000     0.0000     0.0000
H       -0.0000    -0.7668    -0.5971
H       -0.0000     0.7668    -0.5971
X       -0.0000    -0.0000    -0.0668
O        0.7416     1.2000     1.9416
H        0.4413     0.7141     2.7279
H        1.0707     2.0436     2.2945
