           7
Energy =   0.0000000E+00
O        0.0000     0.0000     0.0000
H       -0.0000    -0.7668    -0.5971
H       -0.0000     0.7668    -0.5971
X       -0.0000    -0.0000    -0.0668
O        2.4000     0.0000     0.0000
H        1.9141     0.7863     0.3003
H        3.2199     0.3576    -0.3801
