           7
Energy =   0.0000000E+00
O        0.0000     0.0000     0.0000
H       -0.0000    -0.7668    -0.5971
H       -0.0000     0.7668    -0.5971
X       -0.0000    -0.0000    -0.0668
O        1.9416     0.7416    -1.2000
H        1.4557     1.5279    -1.5003
H        2.5940     0.5822    -1.9025
