           7
Energy =   0.0000000E+00
O        0.0000     0.0000     0.0000
H       -0.0000    -0.7668    -0.5971
H       -0.0000     0.7668    -0.5971
X       -0.0000    -0.0000    -0.0668
O       -2.0416    -1.2618     0.0000
H       -1.2148    -1.7727     0.0000
H       -1.7786    -0.3834    -0.3223
