           7
Energy =   0.0000000E+00
O        0.0000     0.0000     0.0000
H       -0.0000    -0.7668    -0.5971
H       -0.0000     0.7668    -0.5971
X       -0.0000    -0.0000    -0.0668
O        2.0416     1.2618     0.0000
H        1.7412     1.7477    -0.7863
H        2.8630     0.8288    -0.2870
