           7
Energy =   0.0000000E+00
O        0.0000     0.0000     0.0000
H       -0.0000    -0.7668    -0.5971
H       -0.0000     0.7668    -0.5971
X       -0.0000    -0.0000    -0.0668
O        0.0000     2.0416     1.2618
H       -0.4859     2.8278     1.5621
H        0.8897     2.1541     1.6363
