           7
Energy =   0.0000000E+00
O        0.0000     0.0000     0.0000
H       -0.0000    -0.7668    -0.5971
H       -0.0000     0.7668    -0.5971
X       -0.0000    -0.0000    -0.0668
O        0.0000     0.0000     2.4000
H       -0.3003     0.4859     1.6137
H       -0.5772     0.3209     3.1130
