           7
Energy =   0.0000000E+00
O        0.0000     0.0000     0.0000
H       -0.0000    -0.7668    -0.5971
H       -0.0000     0.7668    -0.5971
X       -0.0000    -0.0000    -0.0668
O        2.4000     0.0000     0.0000
H        1.6137    -0.3003    -0.4859
H        2.3796    -0.5121     0.8257
