           7
Energy =   0.0000000E+00
O        0.0000     0.0000     0.0000
H       -0.0000    -0.7668    -0.5971
H       -0.0000     0.7668    -0.5971
X       -0.0000    -0.0000    -0.0668
O        1.2618     0.0000     2.0416
H        0.9614    -0.4859     1.2553
H        0.9789     0.9153     1.8782
