           7
Energy =   0.0000000E+00
O        0.0000     0.0000     0.0000
H       -0.0000    -0.7668    -0.5971
H       -0.0000     0.7668    -0.5971
X       -0.0000    -0.0000    -0.0668
O        0.7416    -1.2000     1.9416
H        1.0420    -0.7141     1.1554
H        1.0688    -0.6706     2.6881
