           7
Energy =   0.0000000E+00
O        0.0000     0.0000     0.0000
H       -0.0000    -0.7668    -0.5971
H       -0.0000     0.7668    -0.5971
X       -0.0000    -0.0000    -0.0668
O        2.4000     0.0000     0.0000
H        2.0997     0.4859    -0.7863
H        3.3681    -0.0143    -0.0843
