           7
Energy =   0.0000000E+00
O        0.0000     0.0000     0.0000
H       -0.0000    -0.7668    -0.5971
H       -0.0000     0.7668    -0.5971
X       -0.0000    -0.0000    -0.0668
O        0.7416    -1.2000     1.9416
H        1.2526    -1.2000     2.7684
H        0.1013    -1.9218     2.0576
