           7
Energy =   0.0000000E+00
O        0.0000     0.0000     0.0000
H       -0.0000    -0.7668    -0.5971
H       -0.0000     0.7668    -0.5971
X       -0.0000    -0.0000    -0.0668
O       -2.0416    -1.2618     0.0000
H       -1.2553    -1.5621     0.4859
H       -2.4888    -2.0842    -0.2607
