           7
Energy =   0.0000000E+00
O        0.0000     0.0000     0.0000
H       -0.0000    -0.7668    -0.5971
H       -0.0000     0.7668    -0.5971
X       -0.0000    -0.0000    -0.0668
O        0.0000    -2.0416     1.2618
H        0.5109    -2.0416     0.4350
H       -0.7392    -1.4359     1.0848
