           7
Energy =   0.0000000E+00
O        0.0000     0.0000     0.0000
H       -0.0000    -0.7668    -0.5971
H       -0.0000     0.7668    -0.5971
X       -0.0000    -0.0000    -0.0668
O        1.2618     0.0000    -2.0416
H        0.4755    -0.3003    -2.5275
H        1.7906    -0.8067    -1.9225
