           7
Energy =  -1.0472900E+01
O        0.0000     0.0000     0.0000
H       -0.0000    -0.7668    -0.5971
H       -0.0000     0.7668    -0.5971
X       -0.0000    -0.0000    -0.0668
O        0.0000     0.0000     4.0000
H       -0.8267     0.5109     4.0000
H        0.2025    -0.1252     3.0577
